OPT_V10/Two_days_MCY3_MIQCPM1/powerflow_results_t12.txt
Pandapower Network Debug Info
==================================================

BUS:
       vm_pu  va_degree      p_mw    q_mvar
0   0.998923   0.411031 -0.002052  0.001189
1   0.998339   0.659738 -0.001983  0.002160
2   0.997194   0.847703 -0.000970  0.002854
3   0.997415   0.608916 -0.001104  0.004293
4   0.999914   0.002193  0.007346  0.011019
5   0.999904   0.002340  0.008817  0.007861
6   0.999896   0.002521  0.006989  0.011887
7   0.999951   0.001630  0.000000  0.000000
8   0.999951   0.001636  0.000000  0.000000
9   1.000000   0.000000 -0.017177 -0.046353
10  1.000000   0.000006  0.000000  0.000000
--------------------------------------------------

LINE:
   p_from_mw  q_from_mvar   p_to_mw  q_to_mvar         pl_mw       ql_mvar  i_from_ka   i_to_ka      i_ka  vm_from_pu  va_from_degree  vm_to_pu  va_to_degree  loading_percent
0   0.017167     0.042353 -0.017165  -0.042351  2.042784e-06  1.592793e-06   0.001759  0.001759  0.001759    1.000000        0.000006  0.999951      0.001630         0.764773
1   0.023154     0.030769 -0.023152  -0.030768  1.146744e-06  8.941354e-07   0.001482  0.001482  0.001482    0.999951        0.001630  0.999914      0.002193         0.644443
2  -0.005999     0.010582  0.006068  -0.010528  6.921468e-05  5.396783e-05   0.017558  0.017558  0.017558    0.999951        0.001636  0.998923      0.411031         7.634093
3  -0.015806    -0.019749  0.015806   0.019749  2.213126e-07  1.725611e-07   0.000974  0.000974  0.000974    0.999904        0.002340  0.999914      0.002193         0.423347
4  -0.006989    -0.011887  0.006989   0.011887  9.301436e-08  7.252482e-08   0.000531  0.000531  0.000531    0.999896        0.002521  0.999904      0.002340         0.230787
5   0.002945    -0.005021 -0.002925   0.005036  2.011103e-05  1.568090e-05   0.008415  0.008415  0.008415    0.998339        0.659738  0.998923      0.411031         3.658857
6   0.001104    -0.004293 -0.001091   0.004303  1.318641e-05  1.028166e-05   0.006414  0.006414  0.006414    0.997415        0.608916  0.998923      0.411031         2.788876
7   0.000970    -0.002854 -0.000962   0.002861  8.266330e-06  6.445393e-06   0.004363  0.004363  0.004363    0.997194        0.847703  0.998339      0.659738         1.897060
--------------------------------------------------

TRAFO:
    p_hv_mw  q_hv_mvar   p_lv_mw  q_lv_mvar    pl_mw  ql_mvar   i_hv_ka   i_lv_ka  vm_hv_pu  va_hv_degree  vm_lv_pu  va_lv_degree  loading_percent
0 -0.005989   0.011582  0.005999  -0.010582  0.00001    0.001  0.000502  0.017558  0.999951       0.00163  0.999951      0.001636         0.130394
1  0.017177   0.046353 -0.017167  -0.042353  0.00001    0.004  0.000408  0.001759  1.000000       0.00000  1.000000      0.000006         0.123582
--------------------------------------------------
